<?xml version="1.0" encoding="UTF-8"?>

<!-- generated on 2026-02-04 19:17:33.122731 by Eclipse SUMO osmWebWizard.py v1_26_0+0000-fa7df22d7f1
<configuration>
    <net-file value="C:\Users\kavi\Sumo\2026-02-04-19-17-15\osm.net.xml.gz"/>
    <output-trip-file value="C:\Users\kavi\Sumo\2026-02-04-19-17-15\osm.motorcycle.trips.xml"/>
    <route-file value="C:\Users\kavi\Sumo\2026-02-04-19-17-15\osm.motorcycle.rou.xml"/>
    <prefix value="motorcycle"/>
    <trip-attributes value="departLane=&quot;best&quot;"/>
    <fringe-start-attributes value="departSpeed=&quot;max&quot;"/>
    <vehicle-class value="motorcycle"/>
    <fringe-factor value="2"/>
    <edge-permission value="motorcycle"/>
    <via-edge-types value="highway.motorway,highway.motorway_link,highway.trunk_link,highway.primary_link,highway.secondary_link,highway.tertiary_link"/>
    <max-distance value="1200.0"/>
    <remove-loops value="True"/>
    <insertion-density value="4.0"/>
</configuration>
-->

<routes xmlns:xsi="http://www.w3.org/2001/XMLSchema-instance" xsi:noNamespaceSchemaLocation="http://sumo.dlr.de/xsd/routes_file.xsd">
    <vType id="motorcycle_motorcycle" vClass="motorcycle"/>
    <trip id="motorcycle0" depart="0.00" from="184733110#2" to="-112869312#2" departLane="best" type="motorcycle_motorcycle"/>
    <trip id="motorcycle1" depart="6.31" from="-26969661#4" to="-26969661#4" departLane="best" type="motorcycle_motorcycle"/>
    <trip id="motorcycle2" depart="12.61" from="30851282#10" to="-184733105" departLane="best" type="motorcycle_motorcycle"/>
    <trip id="motorcycle3" depart="18.92" from="-30853104#1" to="-112869318#0" departLane="best" type="motorcycle_motorcycle"/>
    <trip id="motorcycle4" depart="25.22" from="-1189118669#0" to="-24240031#1" departLane="best" type="motorcycle_motorcycle"/>
    <trip id="motorcycle5" depart="31.53" from="-23970107#2" to="184733112#2" departLane="best" type="motorcycle_motorcycle"/>
    <trip id="motorcycle6" depart="37.83" from="26969670#1" to="-112869288" departLane="best" type="motorcycle_motorcycle"/>
    <trip id="motorcycle7" depart="44.14" from="26969666#2" to="23306340" departLane="best" type="motorcycle_motorcycle"/>
    <trip id="motorcycle8" depart="50.44" from="-28350257#3" to="-23306321#13" departLane="best" type="motorcycle_motorcycle"/>
    <trip id="motorcycle9" depart="56.75" from="-176318929" to="-184733113#2" departLane="best" type="motorcycle_motorcycle"/>
    <trip id="motorcycle10" depart="63.06" from="26969683" to="207264558" departLane="best" type="motorcycle_motorcycle"/>
    <trip id="motorcycle11" depart="69.36" from="30076436#0" to="178751036#3" departLane="best" type="motorcycle_motorcycle" departSpeed="max"/>
    <trip id="motorcycle12" depart="75.67" from="-23970118#2" to="-297308488#2" departLane="best" type="motorcycle_motorcycle"/>
    <trip id="motorcycle13" depart="81.97" from="-1433959913#0" to="-26969665#5" departLane="best" type="motorcycle_motorcycle"/>
    <trip id="motorcycle14" depart="88.28" from="-184733109#0" to="-28163106#2" departLane="best" type="motorcycle_motorcycle"/>
    <trip id="motorcycle15" depart="94.58" from="184733105" to="-30853104#0" departLane="best" type="motorcycle_motorcycle"/>
    <trip id="motorcycle16" depart="100.89" from="-26748474#6" to="34690559#1" departLane="best" type="motorcycle_motorcycle"/>
    <trip id="motorcycle17" depart="107.19" from="-218191054" to="-34690582#3" departLane="best" type="motorcycle_motorcycle" departSpeed="max"/>
    <trip id="motorcycle18" depart="113.50" from="845727138#1" to="217760883" departLane="best" type="motorcycle_motorcycle"/>
    <trip id="motorcycle19" depart="119.80" from="1254580128" to="23306324" departLane="best" type="motorcycle_motorcycle"/>
    <trip id="motorcycle20" depart="126.11" from="26970212#3" to="26969662#1" departLane="best" type="motorcycle_motorcycle"/>
    <trip id="motorcycle21" depart="132.42" from="-23970122" to="-1189109049" departLane="best" type="motorcycle_motorcycle"/>
    <trip id="motorcycle22" depart="138.72" from="-26969685#1" to="-26969946#1" departLane="best" type="motorcycle_motorcycle" departSpeed="max"/>
    <trip id="motorcycle23" depart="145.03" from="-23306334" to="34690569" departLane="best" type="motorcycle_motorcycle" departSpeed="max"/>
    <trip id="motorcycle24" depart="151.33" from="30175315#15" to="-304803468#1" departLane="best" type="motorcycle_motorcycle"/>
    <trip id="motorcycle25" depart="157.64" from="-30851300#6" to="-26748474#8" departLane="best" type="motorcycle_motorcycle"/>
    <trip id="motorcycle26" depart="163.94" from="-184733113#1" to="207270070" departLane="best" type="motorcycle_motorcycle"/>
    <trip id="motorcycle27" depart="170.25" from="845727138#9" to="1342412338#1" departLane="best" type="motorcycle_motorcycle"/>
    <trip id="motorcycle28" depart="176.55" from="-112869312#0" to="23970118#2" departLane="best" type="motorcycle_motorcycle"/>
    <trip id="motorcycle29" depart="182.86" from="-26748474#6" to="217760885" departLane="best" type="motorcycle_motorcycle"/>
    <trip id="motorcycle30" depart="189.17" from="-184733113#5" to="112869295#1" departLane="best" type="motorcycle_motorcycle"/>
    <trip id="motorcycle31" depart="195.47" from="30851300#6" to="306915160#0" departLane="best" type="motorcycle_motorcycle"/>
    <trip id="motorcycle32" depart="201.78" from="-26969672" to="217760882" departLane="best" type="motorcycle_motorcycle"/>
    <trip id="motorcycle33" depart="208.08" from="24240028#3" to="1373597958#2" departLane="best" type="motorcycle_motorcycle"/>
    <trip id="motorcycle34" depart="214.39" from="-1132139278#1" to="30853110" departLane="best" type="motorcycle_motorcycle" departSpeed="max"/>
    <trip id="motorcycle35" depart="220.69" from="-1314584116#1" to="26748474#17" departLane="best" type="motorcycle_motorcycle" departSpeed="max"/>
    <trip id="motorcycle36" depart="227.00" from="-30853104#3" to="-26748474#14" departLane="best" type="motorcycle_motorcycle" departSpeed="max"/>
    <trip id="motorcycle37" depart="233.30" from="1189134441#6" to="23970139#0" departLane="best" type="motorcycle_motorcycle"/>
    <trip id="motorcycle38" depart="239.61" from="-23306323" to="-30175315#6" departLane="best" type="motorcycle_motorcycle" departSpeed="max"/>
    <trip id="motorcycle39" depart="245.91" from="845727138#7" to="218191059#1" departLane="best" type="motorcycle_motorcycle"/>
    <trip id="motorcycle40" depart="252.22" from="-207260572" to="-26969662#1" departLane="best" type="motorcycle_motorcycle"/>
    <trip id="motorcycle41" depart="258.53" from="-28350255#3" to="184733112#1" departLane="best" type="motorcycle_motorcycle" departSpeed="max"/>
    <trip id="motorcycle42" depart="264.83" from="-23970132#1" to="-26969661#0" departLane="best" type="motorcycle_motorcycle"/>
    <trip id="motorcycle43" depart="271.14" from="-23970122" to="30851606#0" departLane="best" type="motorcycle_motorcycle"/>
    <trip id="motorcycle44" depart="277.44" from="297308583" to="-1433959551#1" departLane="best" type="motorcycle_motorcycle"/>
    <trip id="motorcycle45" depart="283.75" from="-23306338" to="-218191035#0" departLane="best" type="motorcycle_motorcycle" departSpeed="max"/>
    <trip id="motorcycle46" depart="290.05" from="30853104#1" to="176318930#0" departLane="best" type="motorcycle_motorcycle"/>
    <trip id="motorcycle47" depart="296.36" from="100857270#6" to="26969665#6" departLane="best" type="motorcycle_motorcycle"/>
    <trip id="motorcycle48" depart="302.66" from="-178751024#0" to="1095119365#2" departLane="best" type="motorcycle_motorcycle"/>
    <trip id="motorcycle49" depart="308.97" from="23306352#3" to="23306321#22" departLane="best" type="motorcycle_motorcycle"/>
    <trip id="motorcycle50" depart="315.28" from="-30851301#0" to="-30851299#0" departLane="best" type="motorcycle_motorcycle"/>
    <trip id="motorcycle51" depart="321.58" from="30076436#0" to="-26969673#3" departLane="best" type="motorcycle_motorcycle" departSpeed="max"/>
    <trip id="motorcycle52" depart="327.89" from="-23306321#20" to="1132139279" departLane="best" type="motorcycle_motorcycle"/>
    <trip id="motorcycle53" depart="334.19" from="-30853104#1" to="-28350255#0" departLane="best" type="motorcycle_motorcycle"/>
    <trip id="motorcycle54" depart="340.50" from="-24240034#1" to="30853104#0" departLane="best" type="motorcycle_motorcycle"/>
    <trip id="motorcycle55" depart="346.80" from="1254291558" to="-1254580128" departLane="best" type="motorcycle_motorcycle" departSpeed="max"/>
    <trip id="motorcycle56" depart="353.11" from="995150185" to="28350255#0" departLane="best" type="motorcycle_motorcycle" departSpeed="max"/>
    <trip id="motorcycle57" depart="359.41" from="51352043#2" to="30853109#0" departLane="best" type="motorcycle_motorcycle"/>
    <trip id="motorcycle58" depart="365.72" from="28350255#1" to="-23306321#7" departLane="best" type="motorcycle_motorcycle"/>
    <trip id="motorcycle59" depart="372.02" from="-30851300#8" to="-1274831111" departLane="best" type="motorcycle_motorcycle"/>
    <trip id="motorcycle60" depart="378.33" from="-521860035" to="1043332245#1" departLane="best" type="motorcycle_motorcycle" departSpeed="max"/>
    <trip id="motorcycle61" depart="384.64" from="34690651#3" to="845727138#6" departLane="best" type="motorcycle_motorcycle"/>
    <trip id="motorcycle62" depart="390.94" from="-217760882" to="-30175292#2" departLane="best" type="motorcycle_motorcycle"/>
    <trip id="motorcycle63" depart="397.25" from="51352043#2" to="184733104#0" departLane="best" type="motorcycle_motorcycle"/>
    <trip id="motorcycle64" depart="403.55" from="1190085873#1" to="24240037#0" departLane="best" type="motorcycle_motorcycle"/>
    <trip id="motorcycle65" depart="409.86" from="112869289" to="30175292#2" departLane="best" type="motorcycle_motorcycle" departSpeed="max"/>
    <trip id="motorcycle66" depart="416.16" from="1370773101#0" to="23306321#24" departLane="best" type="motorcycle_motorcycle"/>
    <trip id="motorcycle67" depart="422.47" from="1354908342#0" to="207264559#2" departLane="best" type="motorcycle_motorcycle"/>
    <trip id="motorcycle68" depart="428.77" from="-30852970#7" to="184733109#3" departLane="best" type="motorcycle_motorcycle"/>
    <trip id="motorcycle69" depart="435.08" from="-26969698#0" to="24240042" departLane="best" type="motorcycle_motorcycle"/>
    <trip id="motorcycle70" depart="441.39" from="-1318087393" to="1189109049" departLane="best" type="motorcycle_motorcycle" departSpeed="max"/>
    <trip id="motorcycle71" depart="447.69" from="995150185" to="845727138#7" departLane="best" type="motorcycle_motorcycle" departSpeed="max"/>
    <trip id="motorcycle72" depart="454.00" from="-26748474#3" to="30853116#1" departLane="best" type="motorcycle_motorcycle"/>
    <trip id="motorcycle73" depart="460.30" from="30175315#6" to="30851282#10" departLane="best" type="motorcycle_motorcycle"/>
    <trip id="motorcycle74" depart="466.61" from="-304803468#1" to="-23306321#17" departLane="best" type="motorcycle_motorcycle"/>
    <trip id="motorcycle75" depart="472.91" from="26969700#1" to="23306346#1" departLane="best" type="motorcycle_motorcycle"/>
    <trip id="motorcycle76" depart="479.22" from="26969673#1" to="-30175292#6" departLane="best" type="motorcycle_motorcycle"/>
    <trip id="motorcycle77" depart="485.52" from="-207264559#0" to="-207264559#0" departLane="best" type="motorcycle_motorcycle"/>
    <trip id="motorcycle78" depart="491.83" from="-184733112#0" to="145124420#1" departLane="best" type="motorcycle_motorcycle"/>
    <trip id="motorcycle79" depart="498.13" from="-26969661#0" to="207260577" departLane="best" type="motorcycle_motorcycle"/>
    <trip id="motorcycle80" depart="504.44" from="23306321#7" to="-24240037#0" departLane="best" type="motorcycle_motorcycle"/>
    <trip id="motorcycle81" depart="510.75" from="1039584202" to="30851606#0" departLane="best" type="motorcycle_motorcycle" departSpeed="max"/>
    <trip id="motorcycle82" depart="517.05" from="28087223#2" to="-184733111#1" departLane="best" type="motorcycle_motorcycle"/>
    <trip id="motorcycle83" depart="523.36" from="-30853104#3" to="-28163106#1" departLane="best" type="motorcycle_motorcycle" departSpeed="max"/>
    <trip id="motorcycle84" depart="529.66" from="23970116#1" to="1444116202" departLane="best" type="motorcycle_motorcycle"/>
    <trip id="motorcycle85" depart="535.97" from="-30853116#0" to="-112869291" departLane="best" type="motorcycle_motorcycle"/>
    <trip id="motorcycle86" depart="542.27" from="-1381375107" to="30851282#7" departLane="best" type="motorcycle_motorcycle" departSpeed="max"/>
    <trip id="motorcycle87" depart="548.58" from="-26969679#0" to="30851300#4" departLane="best" type="motorcycle_motorcycle"/>
    <trip id="motorcycle88" depart="554.88" from="26969663#2" to="30175315#11" departLane="best" type="motorcycle_motorcycle"/>
    <trip id="motorcycle89" depart="561.19" from="30851286" to="-26748474#12" departLane="best" type="motorcycle_motorcycle" departSpeed="max"/>
    <trip id="motorcycle90" depart="567.50" from="26748474#15" to="30851282#9" departLane="best" type="motorcycle_motorcycle"/>
    <trip id="motorcycle91" depart="573.80" from="-217760881" to="30853113" departLane="best" type="motorcycle_motorcycle" departSpeed="max"/>
    <trip id="motorcycle92" depart="580.11" from="-28087223#2" to="30853114" departLane="best" type="motorcycle_motorcycle"/>
    <trip id="motorcycle93" depart="586.41" from="26969670#4" to="-26969946#0" departLane="best" type="motorcycle_motorcycle"/>
    <trip id="motorcycle94" depart="592.72" from="30175301#6" to="30175301#4" departLane="best" type="motorcycle_motorcycle"/>
    <trip id="motorcycle95" depart="599.02" from="-23970114" to="26969698#0" departLane="best" type="motorcycle_motorcycle"/>
    <trip id="motorcycle96" depart="605.33" from="26969663#1" to="-26969663#3" departLane="best" type="motorcycle_motorcycle"/>
    <trip id="motorcycle97" depart="611.63" from="-1188260427" to="-24240028#0" departLane="best" type="motorcycle_motorcycle" departSpeed="max"/>
    <trip id="motorcycle98" depart="617.94" from="51352042#4" to="-28350255#1" departLane="best" type="motorcycle_motorcycle"/>
    <trip id="motorcycle99" depart="624.24" from="184733111#2" to="-754816693#1" departLane="best" type="motorcycle_motorcycle"/>
    <trip id="motorcycle100" depart="630.55" from="727731773#1" to="1370773101#8" departLane="best" type="motorcycle_motorcycle"/>
    <trip id="motorcycle101" depart="636.86" from="51352044#1" to="-23970118#0" departLane="best" type="motorcycle_motorcycle"/>
    <trip id="motorcycle102" depart="643.16" from="-184733112#2" to="112869295#0" departLane="best" type="motorcycle_motorcycle"/>
    <trip id="motorcycle103" depart="649.47" from="1433959551#0" to="1309876139" departLane="best" type="motorcycle_motorcycle"/>
    <trip id="motorcycle104" depart="655.77" from="-30851283#1" to="178751036#1" departLane="best" type="motorcycle_motorcycle" departSpeed="max"/>
    <trip id="motorcycle105" depart="662.08" from="1189134441#5" to="23970118#0" departLane="best" type="motorcycle_motorcycle"/>
    <trip id="motorcycle106" depart="668.38" from="23970117#0" to="23306321#17" departLane="best" type="motorcycle_motorcycle"/>
    <trip id="motorcycle107" depart="674.69" from="-30175315#17" to="-1314687269#2" departLane="best" type="motorcycle_motorcycle"/>
    <trip id="motorcycle108" depart="680.99" from="-26969683" to="297308488#2" departLane="best" type="motorcycle_motorcycle"/>
    <trip id="motorcycle109" depart="687.30" from="23306335" to="-30175301#1" departLane="best" type="motorcycle_motorcycle"/>
    <trip id="motorcycle110" depart="693.61" from="-30851301#0" to="-30124216#1" departLane="best" type="motorcycle_motorcycle"/>
    <trip id="motorcycle111" depart="699.91" from="-207260600#0" to="1036532021#1" departLane="best" type="motorcycle_motorcycle"/>
    <trip id="motorcycle112" depart="706.22" from="30853116#0" to="23306321#4" departLane="best" type="motorcycle_motorcycle"/>
    <trip id="motorcycle113" depart="712.52" from="-26969673#4" to="1433959913#0" departLane="best" type="motorcycle_motorcycle"/>
    <trip id="motorcycle114" depart="718.83" from="-1036532020" to="-297308438#1" departLane="best" type="motorcycle_motorcycle"/>
    <trip id="motorcycle115" depart="725.13" from="207260566#2" to="1190085873#1" departLane="best" type="motorcycle_motorcycle"/>
    <trip id="motorcycle116" depart="731.44" from="26969663#2" to="-23306337" departLane="best" type="motorcycle_motorcycle"/>
    <trip id="motorcycle117" depart="737.74" from="178751036#0" to="-30851288#5" departLane="best" type="motorcycle_motorcycle"/>
    <trip id="motorcycle118" depart="744.05" from="26969673#4" to="24240040" departLane="best" type="motorcycle_motorcycle"/>
    <trip id="motorcycle119" depart="750.35" from="207264810#2" to="-26969662#0" departLane="best" type="motorcycle_motorcycle"/>
    <trip id="motorcycle120" depart="756.66" from="-23306322" to="-112869312#1" departLane="best" type="motorcycle_motorcycle" departSpeed="max"/>
    <trip id="motorcycle121" depart="762.97" from="-24240028#8" to="1249455177#0" departLane="best" type="motorcycle_motorcycle"/>
    <trip id="motorcycle122" depart="769.27" from="28350255#2" to="-1433959913#0" departLane="best" type="motorcycle_motorcycle"/>
    <trip id="motorcycle123" depart="775.58" from="-23306321#3" to="23306338" departLane="best" type="motorcycle_motorcycle"/>
    <trip id="motorcycle124" depart="781.88" from="1051000494#3" to="-26969670#8" departLane="best" type="motorcycle_motorcycle"/>
    <trip id="motorcycle125" depart="788.19" from="207260566#4" to="-112869288" departLane="best" type="motorcycle_motorcycle"/>
    <trip id="motorcycle126" depart="794.49" from="23970132#6" to="26969168#1" departLane="best" type="motorcycle_motorcycle"/>
    <trip id="motorcycle127" depart="800.80" from="-184733111#2" to="1051000493#2" departLane="best" type="motorcycle_motorcycle"/>
    <trip id="motorcycle128" depart="807.10" from="112869307" to="-1254580128" departLane="best" type="motorcycle_motorcycle" departSpeed="max"/>
    <trip id="motorcycle129" depart="813.41" from="-24240033#1" to="297308488#2" departLane="best" type="motorcycle_motorcycle"/>
    <trip id="motorcycle130" depart="819.72" from="-688121551" to="26969673#5" departLane="best" type="motorcycle_motorcycle"/>
    <trip id="motorcycle131" depart="826.02" from="1370773101#1" to="34690651#3" departLane="best" type="motorcycle_motorcycle"/>
    <trip id="motorcycle132" depart="832.33" from="23306321#9" to="1287586755#9" departLane="best" type="motorcycle_motorcycle"/>
    <trip id="motorcycle133" depart="838.63" from="26969685#0" to="1433959913#0" departLane="best" type="motorcycle_motorcycle"/>
    <trip id="motorcycle134" depart="844.94" from="100857270#9" to="-26969681#1" departLane="best" type="motorcycle_motorcycle"/>
    <trip id="motorcycle135" depart="851.24" from="-1433959551#4" to="-297308421" departLane="best" type="motorcycle_motorcycle" departSpeed="max"/>
    <trip id="motorcycle136" depart="857.55" from="-26748485#1" to="-30776979#1" departLane="best" type="motorcycle_motorcycle" departSpeed="max"/>
    <trip id="motorcycle137" depart="863.85" from="1189355137" to="-218191059#2" departLane="best" type="motorcycle_motorcycle"/>
    <trip id="motorcycle138" depart="870.16" from="23306321#12" to="-1314571859#2" departLane="best" type="motorcycle_motorcycle"/>
    <trip id="motorcycle139" depart="876.46" from="-30851606#7" to="1386138153" departLane="best" type="motorcycle_motorcycle"/>
    <trip id="motorcycle140" depart="882.77" from="-30852970#9" to="30851600#1" departLane="best" type="motorcycle_motorcycle"/>
    <trip id="motorcycle141" depart="889.08" from="-30124216#1" to="25459787#2" departLane="best" type="motorcycle_motorcycle"/>
    <trip id="motorcycle142" depart="895.38" from="29114632#1" to="34690695" departLane="best" type="motorcycle_motorcycle"/>
    <trip id="motorcycle143" depart="901.69" from="-34690569" to="-112869316#2" departLane="best" type="motorcycle_motorcycle"/>
    <trip id="motorcycle144" depart="907.99" from="-28350255#1" to="23306321#7" departLane="best" type="motorcycle_motorcycle"/>
    <trip id="motorcycle145" depart="914.30" from="-30851606#2" to="-23306321#5" departLane="best" type="motorcycle_motorcycle"/>
    <trip id="motorcycle146" depart="920.60" from="100857270#1" to="-217760885" departLane="best" type="motorcycle_motorcycle"/>
    <trip id="motorcycle147" depart="926.91" from="176318925#1" to="-112869315" departLane="best" type="motorcycle_motorcycle"/>
    <trip id="motorcycle148" depart="933.21" from="-30851297#2" to="176318925#2" departLane="best" type="motorcycle_motorcycle"/>
    <trip id="motorcycle149" depart="939.52" from="-23306334" to="-30851282#6" departLane="best" type="motorcycle_motorcycle" departSpeed="max"/>
    <trip id="motorcycle150" depart="945.83" from="24240028#1" to="-34690582#2" departLane="best" type="motorcycle_motorcycle"/>
    <trip id="motorcycle151" depart="952.13" from="-1132139278#1" to="1373597958#2" departLane="best" type="motorcycle_motorcycle" departSpeed="max"/>
    <trip id="motorcycle152" depart="958.44" from="995150186" to="-30851606#2" departLane="best" type="motorcycle_motorcycle"/>
    <trip id="motorcycle153" depart="964.74" from="34690569" to="-24240032" departLane="best" type="motorcycle_motorcycle"/>
    <trip id="motorcycle154" depart="971.05" from="-1132139278#1" to="-219558913#1" departLane="best" type="motorcycle_motorcycle" departSpeed="max"/>
    <trip id="motorcycle155" depart="977.35" from="1274827184#1" to="-26748474#6" departLane="best" type="motorcycle_motorcycle"/>
    <trip id="motorcycle156" depart="983.66" from="26969673#5" to="51352043#0" departLane="best" type="motorcycle_motorcycle"/>
    <trip id="motorcycle157" depart="989.96" from="-184733112#2" to="-112869314" departLane="best" type="motorcycle_motorcycle"/>
    <trip id="motorcycle158" depart="996.27" from="-26969681#0" to="23306321#5" departLane="best" type="motorcycle_motorcycle"/>
    <trip id="motorcycle159" depart="1002.57" from="34690651#6" to="-723381313#0" departLane="best" type="motorcycle_motorcycle"/>
    <trip id="motorcycle160" depart="1008.88" from="218191059#2" to="207264815" departLane="best" type="motorcycle_motorcycle"/>
    <trip id="motorcycle161" depart="1015.19" from="-184733109#1" to="26969661#0" departLane="best" type="motorcycle_motorcycle"/>
    <trip id="motorcycle162" depart="1021.49" from="-207260572" to="727731774#2" departLane="best" type="motorcycle_motorcycle"/>
    <trip id="motorcycle163" depart="1027.80" from="26748474#18" to="-30851600#0" departLane="best" type="motorcycle_motorcycle"/>
    <trip id="motorcycle164" depart="1034.10" from="112869293#0" to="-30851300#1" departLane="best" type="motorcycle_motorcycle" departSpeed="max"/>
    <trip id="motorcycle165" depart="1040.41" from="28350255#2" to="26969701#2" departLane="best" type="motorcycle_motorcycle"/>
    <trip id="motorcycle166" depart="1046.71" from="1189134441#5" to="1268592862#1" departLane="best" type="motorcycle_motorcycle"/>
    <trip id="motorcycle167" depart="1053.02" from="-34690569" to="23970139#3" departLane="best" type="motorcycle_motorcycle"/>
    <trip id="motorcycle168" depart="1059.32" from="-26748474#8" to="30124216#1" departLane="best" type="motorcycle_motorcycle"/>
    <trip id="motorcycle169" depart="1065.63" from="26969698#0" to="-184733104#0" departLane="best" type="motorcycle_motorcycle"/>
    <trip id="motorcycle170" depart="1071.94" from="-995151422" to="207260600#0" departLane="best" type="motorcycle_motorcycle" departSpeed="max"/>
    <trip id="motorcycle171" depart="1078.24" from="-30851282#2" to="-112869316#2" departLane="best" type="motorcycle_motorcycle"/>
    <trip id="motorcycle172" depart="1084.55" from="28350257#2" to="-23970120#1" departLane="best" type="motorcycle_motorcycle"/>
    <trip id="motorcycle173" depart="1090.85" from="-28350257#3" to="30851282#3" departLane="best" type="motorcycle_motorcycle"/>
    <trip id="motorcycle174" depart="1097.16" from="219558884#5" to="-28087223#2" departLane="best" type="motorcycle_motorcycle"/>
    <trip id="motorcycle175" depart="1103.46" from="1039584202" to="26748474#14" departLane="best" type="motorcycle_motorcycle" departSpeed="max"/>
    <trip id="motorcycle176" depart="1109.77" from="218191059#2" to="218191049" departLane="best" type="motorcycle_motorcycle"/>
    <trip id="motorcycle177" depart="1116.07" from="1051000493#1" to="26969670#3" departLane="best" type="motorcycle_motorcycle"/>
    <trip id="motorcycle178" depart="1122.38" from="-176318929" to="-26969661#2" departLane="best" type="motorcycle_motorcycle"/>
    <trip id="motorcycle179" depart="1128.68" from="218191059#4" to="-30175315#13" departLane="best" type="motorcycle_motorcycle"/>
    <trip id="motorcycle180" depart="1134.99" from="1311171176#0" to="1246776637" departLane="best" type="motorcycle_motorcycle"/>
    <trip id="motorcycle181" depart="1141.30" from="-24240037#2" to="-207264810#0" departLane="best" type="motorcycle_motorcycle"/>
    <trip id="motorcycle182" depart="1147.60" from="-23306321#23" to="-207264561#2" departLane="best" type="motorcycle_motorcycle"/>
    <trip id="motorcycle183" depart="1153.91" from="1189134441#1" to="26748474#3" departLane="best" type="motorcycle_motorcycle"/>
    <trip id="motorcycle184" depart="1160.21" from="-23306321#11" to="-26748474#4" departLane="best" type="motorcycle_motorcycle"/>
    <trip id="motorcycle185" depart="1166.52" from="701211960" to="1314687269#1" departLane="best" type="motorcycle_motorcycle" departSpeed="max"/>
    <trip id="motorcycle186" depart="1172.82" from="-23306321#3" to="-26969663#3" departLane="best" type="motorcycle_motorcycle"/>
    <trip id="motorcycle187" depart="1179.13" from="670050717" to="145124420#2" departLane="best" type="motorcycle_motorcycle"/>
    <trip id="motorcycle188" depart="1185.43" from="30175292#5" to="1274827184#2" departLane="best" type="motorcycle_motorcycle"/>
    <trip id="motorcycle189" depart="1191.74" from="30175315#0" to="178751024#0" departLane="best" type="motorcycle_motorcycle"/>
    <trip id="motorcycle190" depart="1198.05" from="100857270#12" to="112869312#1" departLane="best" type="motorcycle_motorcycle"/>
    <trip id="motorcycle191" depart="1204.35" from="-23306321#10" to="-1254580130#0" departLane="best" type="motorcycle_motorcycle"/>
    <trip id="motorcycle192" depart="1210.66" from="1274827184#0" to="-30175315#0" departLane="best" type="motorcycle_motorcycle" departSpeed="max"/>
    <trip id="motorcycle193" depart="1216.96" from="845727138#5" to="-207264561#0" departLane="best" type="motorcycle_motorcycle"/>
    <trip id="motorcycle194" depart="1223.27" from="26969661#2" to="-26969663#0" departLane="best" type="motorcycle_motorcycle"/>
    <trip id="motorcycle195" depart="1229.57" from="112869316#0" to="1135514038#1" departLane="best" type="motorcycle_motorcycle"/>
    <trip id="motorcycle196" depart="1235.88" from="845727138#10" to="-30175315#12" departLane="best" type="motorcycle_motorcycle"/>
    <trip id="motorcycle197" depart="1242.18" from="145124429#4" to="207260591" departLane="best" type="motorcycle_motorcycle"/>
    <trip id="motorcycle198" depart="1248.49" from="-23306331" to="-26748474#13" departLane="best" type="motorcycle_motorcycle" departSpeed="max"/>
    <trip id="motorcycle199" depart="1254.79" from="207260587#0" to="-23306321#16" departLane="best" type="motorcycle_motorcycle"/>
    <trip id="motorcycle200" depart="1261.10" from="-112869290#0" to="1135514038#1" departLane="best" type="motorcycle_motorcycle"/>
    <trip id="motorcycle201" depart="1267.41" from="1354908341#1" to="-297308658#0" departLane="best" type="motorcycle_motorcycle"/>
    <trip id="motorcycle202" depart="1273.71" from="-23970132#3" to="23306352#6" departLane="best" type="motorcycle_motorcycle"/>
    <trip id="motorcycle203" depart="1280.02" from="218191048" to="30853104#1" departLane="best" type="motorcycle_motorcycle" departSpeed="max"/>
    <trip id="motorcycle204" depart="1286.32" from="-30853113" to="1433959551#1" departLane="best" type="motorcycle_motorcycle" departSpeed="max"/>
    <trip id="motorcycle205" depart="1292.63" from="184733113#6" to="30851606#4" departLane="best" type="motorcycle_motorcycle"/>
    <trip id="motorcycle206" depart="1298.93" from="26969680#0" to="-1433959551#3" departLane="best" type="motorcycle_motorcycle"/>
    <trip id="motorcycle207" depart="1305.24" from="23970132#3" to="176318928#1" departLane="best" type="motorcycle_motorcycle"/>
    <trip id="motorcycle208" depart="1311.54" from="34690559#1" to="1287586755#2" departLane="best" type="motorcycle_motorcycle"/>
    <trip id="motorcycle209" depart="1317.85" from="-26969701#2" to="-26969673#6" departLane="best" type="motorcycle_motorcycle"/>
    <trip id="motorcycle210" depart="1324.16" from="-176318928#0" to="51352042#0" departLane="best" type="motorcycle_motorcycle"/>
    <trip id="motorcycle211" depart="1330.46" from="34690574#0" to="995151422" departLane="best" type="motorcycle_motorcycle" departSpeed="max"/>
    <trip id="motorcycle212" depart="1336.77" from="207264810#0" to="-26969950" departLane="best" type="motorcycle_motorcycle"/>
    <trip id="motorcycle213" depart="1343.07" from="30851599" to="-23970120#1" departLane="best" type="motorcycle_motorcycle"/>
    <trip id="motorcycle214" depart="1349.38" from="1051000494#0" to="-184733110#2" departLane="best" type="motorcycle_motorcycle" departSpeed="max"/>