<?xml version="1.0" encoding="UTF-8"?>

<!-- generated on 2026-02-04 19:17:36.279127 by Eclipse SUMO osmWebWizard.py v1_26_0+0000-fa7df22d7f1
<configuration>
    <net-file value="C:\Users\kavi\Sumo\2026-02-04-19-17-15\osm.net.xml.gz"/>
    <output-trip-file value="C:\Users\kavi\Sumo\2026-02-04-19-17-15\osm.passenger.trips.xml"/>
    <route-file value="C:\Users\kavi\Sumo\2026-02-04-19-17-15\osm.passenger.rou.xml"/>
    <prefix value="veh"/>
    <trip-attributes value="departLane=&quot;best&quot;"/>
    <fringe-start-attributes value="departSpeed=&quot;max&quot;"/>
    <vehicle-class value="passenger"/>
    <lanes value="True"/>
    <fringe-factor value="5"/>
    <allow-fringe.min-length value="1000.0"/>
    <edge-permission value="passenger"/>
    <via-edge-types value="highway.motorway,highway.motorway_link,highway.trunk_link,highway.primary_link,highway.secondary_link,highway.tertiary_link"/>
    <seed value="43"/>
    <min-distance value="300.0"/>
    <min-distance.fringe value="10.0"/>
    <remove-loops value="True"/>
    <insertion-density value="12.0"/>
</configuration>
-->

<routes xmlns:xsi="http://www.w3.org/2001/XMLSchema-instance" xsi:noNamespaceSchemaLocation="http://sumo.dlr.de/xsd/routes_file.xsd">
    <vType id="veh_passenger" vClass="passenger"/>
    <trip id="veh0" depart="0.00" from="-207264553" to="1274824195" departLane="best" type="veh_passenger"/>
    <trip id="veh1" depart="2.10" from="176318925#4" to="26969670#4" departLane="best" type="veh_passenger"/>
    <trip id="veh2" depart="4.20" from="-995150186" to="1313717943" departLane="best" type="veh_passenger"/>
    <trip id="veh3" depart="6.31" from="-1132139279" to="1189355137" departLane="best" type="veh_passenger" departSpeed="max"/>
    <trip id="veh4" depart="8.41" from="-30851282#1" to="30175315#3" departLane="best" type="veh_passenger"/>
    <trip id="veh5" depart="10.51" from="-34690651#3" to="-23970151#2" departLane="best" type="veh_passenger"/>
    <trip id="veh6" depart="12.61" from="-30851282#8" to="-184733113#0" departLane="best" type="veh_passenger"/>
    <trip id="veh7" depart="14.71" from="1095119365#2" to="1311171177#0" departLane="best" type="veh_passenger"/>
    <trip id="veh8" depart="16.81" from="23970116#1" to="207260566#4" departLane="best" type="veh_passenger"/>
    <trip id="veh9" depart="18.92" from="1051000494#3" to="178751036#3" departLane="best" type="veh_passenger"/>
    <trip id="veh10" depart="21.02" from="-30851283#0" to="-1249455177#0" departLane="best" type="veh_passenger"/>
    <trip id="veh11" depart="23.12" from="-1284852225#0" to="393560241" departLane="best" type="veh_passenger"/>
    <trip id="veh12" depart="25.22" from="26969680#0" to="-30851300#8" departLane="best" type="veh_passenger"/>
    <trip id="veh13" depart="27.32" from="30776979#2" to="1370773101#6" departLane="best" type="veh_passenger"/>
    <trip id="veh14" depart="29.43" from="-176318926" to="30741445" departLane="best" type="veh_passenger"/>
    <trip id="veh15" depart="31.53" from="178751036#0" to="-184733111#2" departLane="best" type="veh_passenger"/>
    <trip id="veh16" depart="33.63" from="1311171177#0" to="26969666#1" departLane="best" type="veh_passenger"/>
    <trip id="veh17" depart="35.73" from="30851288#0" to="-392958817#0" departLane="best" type="veh_passenger" departSpeed="max"/>
    <trip id="veh18" depart="37.83" from="-217760879" to="30175315#11" departLane="best" type="veh_passenger" departSpeed="max"/>
    <trip id="veh19" depart="39.93" from="23970132#6" to="-1254291557#0" departLane="best" type="veh_passenger"/>
    <trip id="veh20" depart="42.04" from="1254580128" to="102479334#0" departLane="best" type="veh_passenger"/>
    <trip id="veh21" depart="44.14" from="-218191059#2" to="207260587#1" departLane="best" type="veh_passenger"/>
    <trip id="veh22" depart="46.24" from="701211960" to="1456827483" departLane="best" type="veh_passenger" departSpeed="max"/>
    <trip id="veh23" depart="48.34" from="-184733109#0" to="1311171176#4" departLane="best" type="veh_passenger"/>
    <trip id="veh24" depart="50.44" from="23970132#3" to="51352044#1" departLane="best" type="veh_passenger"/>
    <trip id="veh25" depart="52.55" from="207272714#0" to="-1190085873#1" departLane="best" type="veh_passenger"/>
    <trip id="veh26" depart="54.65" from="549373929#1" to="207260582" departLane="best" type="veh_passenger"/>
    <trip id="veh27" depart="56.75" from="-1381375107" to="-218191035#0" departLane="best" type="veh_passenger" departSpeed="max"/>
    <trip id="veh28" depart="58.85" from="-1433959551#1" to="219558899" departLane="best" type="veh_passenger"/>
    <trip id="veh29" depart="60.95" from="-207270070" to="26969681#1" departLane="best" type="veh_passenger"/>
    <trip id="veh30" depart="63.06" from="-178751024#0" to="1433959551#3" departLane="best" type="veh_passenger"/>
    <trip id="veh31" depart="65.16" from="-521860035" to="-1189109049" departLane="best" type="veh_passenger" departSpeed="max"/>
    <trip id="veh32" depart="67.26" from="-112869290#1" to="30853104#3" departLane="best" type="veh_passenger"/>
    <trip id="veh33" depart="69.36" from="727731773#3" to="-218191033#0" departLane="best" type="veh_passenger"/>
    <trip id="veh34" depart="71.46" from="219558884#0" to="845727138#11" departLane="best" type="veh_passenger" departSpeed="max"/>
    <trip id="veh35" depart="73.56" from="30851297#1" to="30851600#1" departLane="best" type="veh_passenger"/>
    <trip id="veh36" depart="75.67" from="-28163106#2" to="23306352#7" departLane="best" type="veh_passenger"/>
    <trip id="veh37" depart="77.77" from="1051000493#0" to="34690651#8" departLane="best" type="veh_passenger"/>
    <trip id="veh38" depart="79.87" from="207264536#1" to="30175292#4" departLane="best" type="veh_passenger"/>
    <trip id="veh39" depart="81.97" from="28350257#1" to="1051000493#2" departLane="best" type="veh_passenger"/>
    <trip id="veh40" depart="84.07" from="207264810#2" to="-184733111#0" departLane="best" type="veh_passenger"/>
    <trip id="veh41" depart="86.18" from="-23306321#23" to="34690651#6" departLane="best" type="veh_passenger"/>
    <trip id="veh42" depart="88.28" from="-30852970#10" to="23306324" departLane="best" type="veh_passenger" departSpeed="max"/>
    <trip id="veh43" depart="90.38" from="1190085873#1" to="-30175301#3" departLane="best" type="veh_passenger"/>
    <trip id="veh44" depart="92.48" from="-26969701#0" to="-995150185" departLane="best" type="veh_passenger"/>
    <trip id="veh45" depart="94.58" from="-218191059#2" to="-24240028#1" departLane="best" type="veh_passenger"/>
    <trip id="veh46" depart="96.68" from="26969670#1" to="23306340" departLane="best" type="veh_passenger"/>
    <trip id="veh47" depart="98.79" from="549373929#0" to="23306321#12" departLane="best" type="veh_passenger" departSpeed="max"/>
    <trip id="veh48" depart="100.89" from="51352043#0" to="-26969676#0" departLane="best" type="veh_passenger"/>
    <trip id="veh49" depart="102.99" from="-218191060#1" to="-26969671#1" departLane="best" type="veh_passenger"/>
    <trip id="veh50" depart="105.09" from="-30851291" to="845727138#11" departLane="best" type="veh_passenger" departSpeed="max"/>
    <trip id="veh51" depart="107.19" from="-1284852225#0" to="-112869304" departLane="best" type="veh_passenger"/>
    <trip id="veh52" depart="109.30" from="1095119365#0" to="30853116#1" departLane="best" type="veh_passenger"/>
    <trip id="veh53" depart="111.40" from="297308438#0" to="51352042#0" departLane="best" type="veh_passenger"/>
    <trip id="veh54" depart="113.50" from="1225609736" to="-30175315#13" departLane="best" type="veh_passenger" departSpeed="max"/>
    <trip id="veh55" depart="115.60" from="-207260582" to="26748474#17" departLane="best" type="veh_passenger" departSpeed="max"/>
    <trip id="veh56" depart="117.70" from="-207270079" to="-112869287" departLane="best" type="veh_passenger"/>
    <trip id="veh57" depart="119.80" from="207260572" to="-218191033#0" departLane="best" type="veh_passenger"/>
    <trip id="veh58" depart="121.91" from="1311171177#0" to="-26969662#0" departLane="best" type="veh_passenger"/>
    <trip id="veh59" depart="124.01" from="-34551847" to="-112869293#0" departLane="best" type="veh_passenger" departSpeed="max"/>
    <trip id="veh60" depart="126.11" from="-30851282#9" to="-34690651#3" departLane="best" type="veh_passenger"/>
    <trip id="veh61" depart="128.21" from="-24240028#10" to="-218191049" departLane="best" type="veh_passenger" departSpeed="max"/>
    <trip id="veh62" depart="130.31" from="1190085873#1" to="23306330" departLane="best" type="veh_passenger"/>
    <trip id="veh63" depart="132.42" from="-23306321#1" to="-1221484479#0" departLane="best" type="veh_passenger"/>
    <trip id="veh64" depart="134.52" from="-24240038" to="23306333" departLane="best" type="veh_passenger"/>
    <trip id="veh65" depart="136.62" from="-25459787#2" to="218191033#2" departLane="best" type="veh_passenger" departSpeed="max"/>
    <trip id="veh66" depart="138.72" from="-1314584115#2" to="23306337" departLane="best" type="veh_passenger" departSpeed="max"/>
    <trip id="veh67" depart="140.82" from="218191059#2" to="1287586755#10" departLane="best" type="veh_passenger"/>
    <trip id="veh68" depart="142.92" from="1370773101#7" to="-30851288#0" departLane="best" type="veh_passenger"/>
    <trip id="veh69" depart="145.03" from="176318925#1" to="-30851600#0" departLane="best" type="veh_passenger"/>
    <trip id="veh70" depart="147.13" from="102479334#1" to="1248041647" departLane="best" type="veh_passenger"/>
    <trip id="veh71" depart="149.23" from="30851600#0" to="24240034#3" departLane="best" type="veh_passenger" departSpeed="max"/>
    <trip id="veh72" depart="151.33" from="1287586755#7" to="23970107#3" departLane="best" type="veh_passenger"/>
    <trip id="veh73" depart="153.43" from="112869289" to="178751036#3" departLane="best" type="veh_passenger" departSpeed="max"/>
    <trip id="veh74" depart="155.54" from="1370773101#6" to="26969949#1" departLane="best" type="veh_passenger"/>
    <trip id="veh75" depart="157.64" from="1287586755#3" to="-112869302#2" departLane="best" type="veh_passenger"/>
    <trip id="veh76" depart="159.74" from="-176318932#0" to="30851300#6" departLane="best" type="veh_passenger"/>
    <trip id="veh77" depart="161.84" from="207260575" to="30853109#0" departLane="best" type="veh_passenger"/>
    <trip id="veh78" depart="163.94" from="30851282#7" to="-26969701#2" departLane="best" type="veh_passenger"/>
    <trip id="veh79" depart="166.04" from="218191059#3" to="1370773101#0" departLane="best" type="veh_passenger"/>
    <trip id="veh80" depart="168.15" from="-23970151#1" to="1296800348#2" departLane="best" type="veh_passenger"/>
    <trip id="veh81" depart="170.25" from="100857270#10" to="-30851600#0" departLane="best" type="veh_passenger"/>
    <trip id="veh82" depart="172.35" from="-28350255#3" to="1246776637" departLane="best" type="veh_passenger" departSpeed="max"/>
    <trip id="veh83" depart="174.45" from="-24240034#1" to="-218191063#1" departLane="best" type="veh_passenger"/>
    <trip id="veh84" depart="176.55" from="-30175315#8" to="26969665#1" departLane="best" type="veh_passenger"/>
    <trip id="veh85" depart="178.66" from="207260566#5" to="1254291557#2" departLane="best" type="veh_passenger"/>
    <trip id="veh86" depart="180.76" from="-26969673#5" to="26969671#2" departLane="best" type="veh_passenger"/>
    <trip id="veh87" depart="182.86" from="-23306338" to="1274827184#1" departLane="best" type="veh_passenger" departSpeed="max"/>
    <trip id="veh88" depart="184.96" from="-30851282#5" to="845727138#7" departLane="best" type="veh_passenger"/>
    <trip id="veh89" depart="187.06" from="-23306346#1" to="206819370" departLane="best" type="veh_passenger"/>
    <trip id="veh90" depart="189.17" from="112869295#1" to="-1246776637" departLane="best" type="veh_passenger"/>
    <trip id="veh91" depart="191.27" from="-218191054" to="30851606#1" departLane="best" type="veh_passenger" departSpeed="max"/>
    <trip id="veh92" depart="193.37" from="23970151#1" to="-26969670#1" departLane="best" type="veh_passenger"/>
    <trip id="veh93" depart="195.47" from="-218191053" to="34690695" departLane="best" type="veh_passenger" departSpeed="max"/>
    <trip id="veh94" depart="197.57" from="1254580126#2" to="23306352#6" departLane="best" type="veh_passenger"/>
    <trip id="veh95" depart="199.67" from="1051000494#0" to="30853116#1" departLane="best" type="veh_passenger" departSpeed="max"/>
    <trip id="veh96" depart="201.78" from="-218191059#3" to="-30124216#0" departLane="best" type="veh_passenger"/>
    <trip id="veh97" depart="203.88" from="30175315#7" to="30076436#1" departLane="best" type="veh_passenger"/>
    <trip id="veh98" depart="205.98" from="112869287" to="-218191049" departLane="best" type="veh_passenger" departSpeed="max"/>
    <trip id="veh99" depart="208.08" from="26969673#4" to="-30852970#0" departLane="best" type="veh_passenger"/>
    <trip id="veh100" depart="210.18" from="23306344#0" to="-30124216#0" departLane="best" type="veh_passenger"/>
    <trip id="veh101" depart="212.29" from="-207270070" to="23306331" departLane="best" type="veh_passenger"/>
    <trip id="veh102" depart="214.39" from="-30851300#9" to="1043332245#1" departLane="best" type="veh_passenger"/>
    <trip id="veh103" depart="216.49" from="100857270#9" to="218191035#1" departLane="best" type="veh_passenger"/>
    <trip id="veh104" depart="218.59" from="-176318931" to="23306321#25" departLane="best" type="veh_passenger" departSpeed="max"/>
    <trip id="veh105" depart="220.69" from="102667268" to="26969946#0" departLane="best" type="veh_passenger" departSpeed="max"/>
    <trip id="veh106" depart="222.79" from="-26748485#1" to="219558902" departLane="best" type="veh_passenger" departSpeed="max"/>
    <trip id="veh107" depart="224.90" from="102479334#0" to="427962057" departLane="best" type="veh_passenger"/>
    <trip id="veh108" depart="227.00" from="-30175315#1" to="-1434350658" departLane="best" type="veh_passenger"/>
    <trip id="veh109" depart="229.10" from="-26970212#1" to="-1221484255" departLane="best" type="veh_passenger"/>
    <trip id="veh110" depart="231.20" from="30851282#2" to="28350257#4" departLane="best" type="veh_passenger"/>
    <trip id="veh111" depart="233.30" from="-23306321#21" to="306915160#0" departLane="best" type="veh_passenger"/>
    <trip id="veh112" depart="235.41" from="-30853113" to="-1254580130#0" departLane="best" type="veh_passenger" departSpeed="max"/>
    <trip id="veh113" depart="237.51" from="1370773101#1" to="-1434350660" departLane="best" type="veh_passenger"/>
    <trip id="veh114" depart="239.61" from="30851282#8" to="34690567#0" departLane="best" type="veh_passenger"/>
    <trip id="veh115" depart="241.71" from="1296800348#1" to="-28350257#5" departLane="best" type="veh_passenger"/>
    <trip id="veh116" depart="243.81" from="23970120#0" to="-1190085873#0" departLane="best" type="veh_passenger" departSpeed="max"/>
    <trip id="veh117" depart="245.91" from="-184733106" to="-30852837" departLane="best" type="veh_passenger" departSpeed="max"/>
    <trip id="veh118" depart="248.02" from="145124432#1" to="26969682" departLane="best" type="veh_passenger"/>
    <trip id="veh119" depart="250.12" from="145124420#1" to="-26969679#2" departLane="best" type="veh_passenger"/>
    <trip id="veh120" depart="252.22" from="-26748474#16" to="207260600#1" departLane="best" type="veh_passenger"/>
    <trip id="veh121" depart="254.32" from="24240028#2" to="207270070" departLane="best" type="veh_passenger"/>
    <trip id="veh122" depart="256.42" from="-26969685#1" to="26969673#7" departLane="best" type="veh_passenger" departSpeed="max"/>
    <trip id="veh123" depart="258.53" from="26970212#0" to="219558889" departLane="best" type="veh_passenger" departSpeed="max"/>
    <trip id="veh124" depart="260.63" from="100857270#0" to="184733115#1" departLane="best" type="veh_passenger" departSpeed="max"/>
    <trip id="veh125" depart="262.73" from="-23306321#2" to="1221484479#1" departLane="best" type="veh_passenger"/>
    <trip id="veh126" depart="264.83" from="26969673#3" to="1296800348#1" departLane="best" type="veh_passenger"/>
    <trip id="veh127" depart="266.93" from="-1132139278#1" to="26969698#3" departLane="best" type="veh_passenger" departSpeed="max"/>
    <trip id="veh128" depart="269.03" from="-207270079" to="-112869314" departLane="best" type="veh_passenger"/>
    <trip id="veh129" depart="271.14" from="1225609736" to="26748474#8" departLane="best" type="veh_passenger" departSpeed="max"/>
    <trip id="veh130" depart="273.24" from="-184733106" to="1248041647" departLane="best" type="veh_passenger" departSpeed="max"/>
    <trip id="veh131" depart="275.34" from="100857270#10" to="-218191033#0" departLane="best" type="veh_passenger"/>
    <trip id="veh132" depart="277.44" from="1314584115#1" to="-30076436#0" departLane="best" type="veh_passenger"/>
    <trip id="veh133" depart="279.54" from="184733115#1" to="1314584115#0" departLane="best" type="veh_passenger"/>
    <trip id="veh134" depart="281.65" from="112869294" to="-26969701#1" departLane="best" type="veh_passenger" departSpeed="max"/>
    <trip id="veh135" depart="283.75" from="23306352#6" to="-112869289" departLane="best" type="veh_passenger"/>
    <trip id="veh136" depart="285.85" from="-26969678" to="-207260566#0" departLane="best" type="veh_passenger" departSpeed="max"/>
    <trip id="veh137" depart="287.95" from="-1433959551#0" to="-112869289" departLane="best" type="veh_passenger"/>
    <trip id="veh138" depart="290.05" from="112869293#0" to="-1314581962" departLane="best" type="veh_passenger" departSpeed="max"/>
    <trip id="veh139" depart="292.15" from="-184733109#2" to="1189355137" departLane="best" type="veh_passenger"/>
    <trip id="veh140" depart="294.26" from="178751036#1" to="-26969662#0" departLane="best" type="veh_passenger"/>
    <trip id="veh141" depart="296.36" from="145124420#1" to="1457771410" departLane="best" type="veh_passenger"/>
    <trip id="veh142" depart="298.46" from="30852970#5" to="26969685#1" departLane="best" type="veh_passenger"/>
    <trip id="veh143" depart="300.56" from="-26748477" to="1189118669#1" departLane="best" type="veh_passenger" departSpeed="max"/>
    <trip id="veh144" depart="302.66" from="-1188260427" to="23970107#3" departLane="best" type="veh_passenger" departSpeed="max"/>
    <trip id="veh145" depart="304.77" from="-23970132#6" to="393560242#1" departLane="best" type="veh_passenger"/>
    <trip id="veh146" depart="306.87" from="-26969671#2" to="-218191033#1" departLane="best" type="veh_passenger"/>
    <trip id="veh147" depart="308.97" from="1373597958#0" to="-30851606#6" departLane="best" type="veh_passenger"/>
    <trip id="veh148" depart="311.07" from="-24240042" to="-30853104#0" departLane="best" type="veh_passenger" departSpeed="max"/>
    <trip id="veh149" depart="313.17" from="-30175292#0" to="26969670#5" departLane="best" type="veh_passenger"/>
    <trip id="veh150" depart="315.28" from="-23306324" to="-218191033#0" departLane="best" type="veh_passenger" departSpeed="max"/>
    <trip id="veh151" depart="317.38" from="-26969950" to="176318932#1" departLane="best" type="veh_passenger"/>
    <trip id="veh152" depart="319.48" from="-26748474#8" to="-207264555#0" departLane="best" type="veh_passenger"/>
    <trip id="veh153" depart="321.58" from="-30175301#4" to="670050713#2" departLane="best" type="veh_passenger"/>
    <trip id="veh154" depart="323.68" from="30851286" to="1248041647" departLane="best" type="veh_passenger" departSpeed="max"/>
    <trip id="veh155" depart="325.78" from="-34690582#3" to="-23970151#0" departLane="best" type="veh_passenger"/>
    <trip id="veh156" depart="327.89" from="176318925#3" to="23970107#1" departLane="best" type="veh_passenger"/>
    <trip id="veh157" depart="329.99" from="-1457771410" to="-33876105" departLane="best" type="veh_passenger" departSpeed="max"/>
    <trip id="veh158" depart="332.09" from="-26969661#2" to="26969673#0" departLane="best" type="veh_passenger"/>
    <trip id="veh159" depart="334.19" from="1309876138#0" to="1318087393" departLane="best" type="veh_passenger" departSpeed="max"/>
    <trip id="veh160" depart="336.29" from="-393560251" to="1456827483" departLane="best" type="veh_passenger"/>
    <trip id="veh161" depart="338.40" from="102479334#1" to="-30175292#4" departLane="best" type="veh_passenger"/>
    <trip id="veh162" depart="340.50" from="26969671#1" to="26969673#0" departLane="best" type="veh_passenger"/>
    <trip id="veh163" depart="342.60" from="23306358#0" to="-23970122" departLane="best" type="veh_passenger" departSpeed="max"/>
    <trip id="veh164" depart="344.70" from="-218191063#1" to="100857270#11" departLane="best" type="veh_passenger"/>
    <trip id="veh165" depart="346.80" from="1311171177#3" to="-34690565#2" departLane="best" type="veh_passenger"/>
    <trip id="veh166" depart="348.90" from="112869288" to="1322500020" departLane="best" type="veh_passenger" departSpeed="max"/>
    <trip id="veh167" depart="351.01" from="30852851#2" to="184733105" departLane="best" type="veh_passenger"/>
    <trip id="veh168" depart="353.11" from="-24240042" to="207272729" departLane="best" type="veh_passenger" departSpeed="max"/>
    <trip id="veh169" depart="355.21" from="1149879722" to="-30852837" departLane="best" type="veh_passenger" departSpeed="max"/>
    <trip id="veh170" depart="357.31" from="845727138#10" to="30851291" departLane="best" type="veh_passenger"/>
    <trip id="veh171" depart="359.41" from="-1274827186" to="23306346#0" departLane="best" type="veh_passenger"/>
    <trip id="veh172" depart="361.52" from="-207260582" to="845727138#12" departLane="best" type="veh_passenger" departSpeed="max"/>
    <trip id="veh173" depart="363.62" from="-754816693#0" to="24240028#10" departLane="best" type="veh_passenger"/>
    <trip id="veh174" depart="365.72" from="-23970148" to="218191059#1" departLane="best" type="veh_passenger" departSpeed="max"/>
    <trip id="veh175" depart="367.82" from="-1190097666" to="26969673#6" departLane="best" type="veh_passenger" departSpeed="max"/>
    <trip id="veh176" depart="369.92" from="-24240033#1" to="-23970132#6" departLane="best" type="veh_passenger"/>
    <trip id="veh177" depart="372.02" from="-51352043#2" to="1314571859#3" departLane="best" type="veh_passenger"/>
    <trip id="veh178" depart="374.13" from="-1268592862#0" to="-23970120#0" departLane="best" type="veh_passenger"/>
    <trip id="veh179" depart="376.23" from="-30851288#6" to="145124420#4" departLane="best" type="veh_passenger"/>
    <trip id="veh180" depart="378.33" from="207260575" to="-218191059#2" departLane="best" type="veh_passenger"/>
    <trip id="veh181" depart="380.43" from="26969665#5" to="102479303" departLane="best" type="veh_passenger"/>
    <trip id="veh182" depart="382.53" from="-701514297" to="102479303" departLane="best" type="veh_passenger"/>
    <trip id="veh183" depart="384.64" from="-1318087393" to="34690565#1" departLane="best" type="veh_passenger" departSpeed="max"/>
    <trip id="veh184" depart="386.74" from="1254580128" to="24240042" departLane="best" type="veh_passenger"/>
    <trip id="veh185" depart="388.84" from="-26748485#0" to="-306915160#1" departLane="best" type="veh_passenger"/>
    <trip id="veh186" depart="390.94" from="100857270#0" to="23306333" departLane="best" type="veh_passenger" departSpeed="max"/>
    <trip id="veh187" depart="393.04" from="845727138#3" to="184733113#6" departLane="best" type="veh_passenger"/>
    <trip id="veh188" depart="395.14" from="24240034#3" to="51352042#2" departLane="best" type="veh_passenger"/>
    <trip id="veh189" depart="397.25" from="26969679#0" to="23306333" departLane="best" type="veh_passenger"/>
    <trip id="veh190" depart="399.35" from="-1132139279" to="26969949#1" departLane="best" type="veh_passenger" departSpeed="max"/>
    <trip id="veh191" depart="401.45" from="30851286" to="30852970#10" departLane="best" type="veh_passenger" departSpeed="max"/>
    <trip id="veh192" depart="403.55" from="-28163106#1" to="23970117#1" departLane="best" type="veh_passenger"/>
    <trip id="veh193" depart="405.65" from="26969670#1" to="1248041647" departLane="best" type="veh_passenger"/>
    <trip id="veh194" depart="407.76" from="1370773101#4" to="1051000493#0" departLane="best" type="veh_passenger"/>
    <trip id="veh195" depart="409.86" from="30852855#0" to="1370773101#8" departLane="best" type="veh_passenger"/>
    <trip id="veh196" depart="411.96" from="-23970107#3" to="1189134441#3" departLane="best" type="veh_passenger" departSpeed="max"/>
    <trip id="veh197" depart="414.06" from="-26969683" to="1296800348#4" departLane="best" type="veh_passenger"/>
    <trip id="veh198" depart="416.16" from="-1381375107" to="-34690565#0" departLane="best" type="veh_passenger" departSpeed="max"/>
    <trip id="veh199" depart="418.26" from="-184733109#1" to="1287586755#8" departLane="best" type="veh_passenger"/>
    <trip id="veh200" depart="420.37" from="-26969701#1" to="1043332245#1" departLane="best" type="veh_passenger"/>
    <trip id="veh201" depart="422.47" from="-1190097666" to="845727138#12" departLane="best" type="veh_passenger" departSpeed="max"/>
    <trip id="veh202" depart="424.57" from="-23306322" to="-112869289" departLane="best" type="veh_passenger" departSpeed="max"/>
    <trip id="veh203" depart="426.67" from="1189134441#6" to="30853116#1" departLane="best" type="veh_passenger"/>
    <trip id="veh204" depart="428.77" from="-1274827184#2" to="1287586755#10" departLane="best" type="veh_passenger" departSpeed="max"/>
    <trip id="veh205" depart="430.88" from="-207260587#0" to="-1254580130#0" departLane="best" type="veh_passenger"/>
    <trip id="veh206" depart="432.98" from="207260566#0" to="26748474#14" departLane="best" type="veh_passenger" departSpeed="max"/>
    <trip id="veh207" depart="435.08" from="845727134" to="-297308488#1" departLane="best" type="veh_passenger"/>
    <trip id="veh208" depart="437.18" from="24240037#1" to="26969682" departLane="best" type="veh_passenger"/>
    <trip id="veh209" depart="439.28" from="-995150186" to="26969665#3" departLane="best" type="veh_passenger"/>
    <trip id="veh210" depart="441.39" from="-26969700#1" to="30853104#3" departLane="best" type="veh_passenger"/>
    <trip id="veh211" depart="443.49" from="26969680#1" to="23306321#24" departLane="best" type="veh_passenger"/>
    <trip id="veh212" depart="445.59" from="-30851282#6" to="393560242#1" departLane="best" type="veh_passenger"/>
    <trip id="veh213" depart="447.69" from="-34690651#6" to="-30852970#8" departLane="best" type="veh_passenger"/>
    <trip id="veh214" depart="449.79" from="-30853116#0" to="176318931" departLane="best" type="veh_passenger"/>
    <trip id="veh215" depart="451.89" from="-1433959551#4" to="297308658#1" departLane="best" type="veh_passenger" departSpeed="max"/>
    <trip id="veh216" depart="454.00" from="1287586755#8" to="-1225609736" departLane="best" type="veh_passenger"/>
    <trip id="veh217" depart="456.10" from="-145124432#2" to="-30851300#2" departLane="best" type="veh_passenger" departSpeed="max"/>
    <trip id="veh218" depart="458.20" from="-34690575#2" to="26969676#1" departLane="best" type="veh_passenger" departSpeed="max"/>
    <trip id="veh219" depart="460.30" from="24240037#2" to="23970148" departLane="best" type="veh_passenger"/>
    <trip id="veh220" depart="462.40" from="218191059#4" to="1322500020" departLane="best" type="veh_passenger"/>
    <trip id="veh221" depart="464.51" from="-1433959551#4" to="100857270#12" departLane="best" type="veh_passenger" departSpeed="max"/>
    <trip id="veh222" depart="466.61" from="23306321#2" to="-112869304" departLane="best" type="veh_passenger"/>
    <trip id="veh223" depart="468.71" from="-23970107#3" to="-112869294" departLane="best" type="veh_passenger" departSpeed="max"/>
    <trip id="veh224" depart="470.81" from="102479332#6" to="-23970151#3" departLane="best" type="veh_passenger"/>
    <trip id="veh225" depart="472.91" from="1135514038#1" to="-207264810#0" departLane="best" type="veh_passenger"/>
    <trip id="veh226" depart="475.01" from="23970151#2" to="28350257#4" departLane="best" type="veh_passenger"/>
    <trip id="veh227" depart="477.12" from="145124429#1" to="176318925#2" departLane="best" type="veh_passenger"/>
    <trip id="veh228" depart="479.22" from="1370773101#3" to="1248041647" departLane="best" type="veh_passenger"/>
    <trip id="veh229" depart="481.32" from="-207264536#1" to="30852970#7" departLane="best" type="veh_passenger"/>
    <trip id="veh230" depart="483.42" from="-23306332" to="30851291" departLane="best" type="veh_passenger" departSpeed="max"/>
    <trip id="veh231" depart="485.52" from="-30851291" to="145124432#2" departLane="best" type="veh_passenger" departSpeed="max"/>
    <trip id="veh232" depart="487.63" from="1296800348#5" to="102479321" departLane="best" type="veh_passenger"/>
    <trip id="veh233" depart="489.73" from="845727138#6" to="30175315#1" departLane="best" type="veh_passenger"/>
    <trip id="veh234" depart="491.83" from="-30851292" to="-701211960" departLane="best" type="veh_passenger" departSpeed="max"/>
    <trip id="veh235" depart="493.93" from="-30175315#11" to="-218191044" departLane="best" type="veh_passenger"/>
    <trip id="veh236" depart="496.03" from="112869304" to="1274824195" departLane="best" type="veh_passenger" departSpeed="max"/>
    <trip id="veh237" depart="498.13" from="-51352044#1" to="207260587#0" departLane="best" type="veh_passenger"/>